288
ZIF-8
Zn      0.000000    4.248023    8.495045
Zn      4.248023    0.000000    8.495045
Zn      0.000000    8.495045    4.248023
C       1.714009    6.261033    5.310028
H       2.397013    6.418034    4.700025
N       0.538003    6.962037    5.390029
C       6.261033    1.714009    5.310028
H       6.418034    2.397013    4.700025
N       6.962037    0.538003    5.390029
Zn      8.495045    0.000000    4.248023
C       6.261033    5.310028    1.714009
H       6.418034    4.700025    2.397013
N       6.962037    5.390029    0.538003
Zn      8.495045    4.248023    0.000000
Zn      4.248023    8.495045    0.000000
C       5.310028    6.261033    1.714009
H       4.700025    6.418034    2.397013
N       5.390029    6.962037    0.538003
C       5.310028    1.714009    6.261033
H       4.700025    2.397013    6.418034
N       5.390029    0.538003    6.962037
C       1.714009    5.310028    6.261033
H       2.397013    4.700025    6.418034
N       0.538003    5.390029    6.962037
C       2.089011    8.361044    2.089011
C       2.234012   10.209054    3.186017
H       2.078011   10.893058    3.796020
C       1.595008    7.043037    1.595008
H       0.702004    7.140038    1.262007
H       1.601008    6.409034    2.318012
H       2.168012    6.730036    0.892005
N       1.534008    9.034048    3.106016
C       8.361044    2.089011    2.089011
C      10.209054    2.234012    3.186017
H      10.893058    2.078011    3.796020
C       7.043037    1.595008    1.595008
N       9.034048    1.534008    3.106016
C       2.089011    2.089011    8.361044
C       2.234012    3.186017   10.209054
H       2.078011    3.796020   10.893058
C       1.595008    1.595008    7.043037
H       0.702004    1.262007    7.140038
H       1.601008    2.318012    6.409034
H       2.168012    0.892005    6.730036
N       1.534008    3.106016    9.034048
C       3.186017    2.234012   10.209054
H       3.796020    2.078011   10.893058
N       3.106016    1.534008    9.034048
C      10.209054    3.186017    2.234012
H      10.893058    3.796020    2.078011
H       7.140038    1.262007    0.702004
H       6.409034    2.318012    1.601008
H       6.730036    0.892005    2.168012
N       9.034048    3.106016    1.534008
C       3.186017   10.209054    2.234012
H       3.796020   10.893058    2.078011
N       3.106016    9.034048    1.534008
Zn      0.000000   12.743068    8.495045
Zn      0.000000    8.495045   12.743068
Zn      4.248023    8.496045   16.991090
C       1.714009   10.730057   11.681062
H       2.397013   10.573056   12.291065
N       0.538003   10.029053   11.601062
C       1.714009   11.681062   10.730057
H       2.397013   12.291065   10.573056
N       0.538003   11.601062   10.029053
C       2.089011    8.630046   14.902079
C       2.234012    6.782036   13.805073
H       2.078011    6.098032   13.195070
C       1.595008    9.948053   15.396082
N       1.534008    7.957042   13.885074
C       2.089011   14.902079    8.630046
C       3.186017   14.757078    6.782036
H       3.796020   14.913079    6.098032
C       1.595008   15.396082    9.948053
N       3.106016   15.457082    7.957042
C       2.234012   13.805073    6.782036
H       2.078011   13.195070    6.098032
H       0.702004   15.729083    9.851052
H       1.601008   14.673078   10.582056
H       2.168012   16.099085   10.261054
N       1.534008   13.885074    7.957042
C       3.186017    6.782036   14.757078
H       3.796020    6.098032   14.913079
H       1.262007    9.851052   16.289086
H       2.318012   10.582056   15.390082
H       0.892005   10.261054   14.823079
N       3.106016    7.957042   15.457082
C       5.310028   10.730057   15.277081
H       4.700025   10.573056   14.594077
N       5.390029   10.029053   16.453087
C       6.261033   11.681062   15.277081
H       6.418034   12.291065   14.594077
N       6.962037   11.601062   16.453087
Zn      4.248023   16.991090    8.495045
Zn      8.496045   12.743068   16.991090
C       6.261033   15.277081   11.681062
H       6.418034   14.594077   12.291065
N       6.962037   16.453087   11.601062
C       5.310028   15.277081   10.730057
H       4.700025   14.594077   10.573056
N       5.390029   16.453087   10.029053
Zn      8.496045   16.991090   12.743068
C       8.361044   14.902079   14.902079
C      10.209054   14.757078   13.805073
H      10.893058   14.913079   13.195070
C       7.043037   15.396082   15.396082
H       7.140038   16.289086   15.729083
H       6.409034   15.390082   14.673078
H       6.730036   14.823079   16.099085
N       9.034048   15.457082   13.885074
C      10.209054   13.805073   14.757078
H      10.893058   13.195070   14.913079
N       9.034048   13.885074   15.457082
C       6.406034    0.134001   10.585056
C       6.900037    1.453008   10.091054
H       7.233038    1.356007    9.197049
H       6.178033    2.086011   10.096054
H       7.603040    1.765009   10.664057
C       0.134001   10.585056    6.406034
C       1.453008   10.091054    6.900037
H       1.356007    9.758052    7.794041
H       2.086011   10.813057    6.895037
H       1.765009    9.388050    6.327034
C      10.585056    0.134001    6.406034
C      10.091054    1.453008    6.900037
H       9.197049    1.356007    7.233038
H      10.096054    2.086011    6.178033
H      10.664057    1.765009    7.603040
C       0.134001    6.406034   10.585056
C       1.453008    6.900037   10.091054
H       1.356007    7.794041    9.758052
H       2.086011    6.895037   10.813057
H       1.765009    6.327034    9.388050
C      10.585056    6.406034    0.134001
C      10.091054    6.900037    1.453008
H       9.197049    7.233038    1.356007
H      10.096054    6.178033    2.086011
H      10.664057    7.603040    1.765009
C       6.406034   10.585056    0.134001
C       6.900037   10.091054    1.453008
H       7.794041    9.758052    1.356007
H       6.895037   10.813057    2.086011
H       6.327034    9.388050    1.765009
Zn      8.495045    0.000000   12.743068
Zn     12.743068    0.000000    8.495045
Zn      8.496045    4.248023   16.991090
C      10.730057    1.714009   11.681062
H      10.573056    2.397013   12.291065
N      10.029053    0.538003   11.601062
C      11.681062    1.714009   10.730057
H      12.291065    2.397013   10.573056
N      11.601062    0.538003   10.029053
C       8.630046    2.089011   14.902079
C       6.782036    2.234012   13.805073
H       6.098032    2.078011   13.195070
C       9.948053    1.595008   15.396082
N       7.957042    1.534008   13.885074
C      14.902079    2.089011    8.630046
C      13.805073    2.234012    6.782036
H      13.195070    2.078011    6.098032
C      15.396082    1.595008    9.948053
N      13.885074    1.534008    7.957042
C      14.757078    3.186017    6.782036
H      14.913079    3.796020    6.098032
H      16.289086    1.262007    9.851052
H      15.390082    2.318012   10.582056
H      14.823079    0.892005   10.261054
N      15.457082    3.106016    7.957042
C       6.782036    3.186017   14.757078
H       6.098032    3.796020   14.913079
H       9.851052    1.262007   16.289086
H      10.582056    2.318012   15.390082
H      10.261054    0.892005   14.823079
N       7.957042    3.106016   15.457082
C      11.681062    6.261033   15.277081
H      12.291065    6.418034   14.594077
N      11.601062    6.962037   16.453087
C      10.730057    5.310028   15.277081
H      10.573056    4.700025   14.594077
N      10.029053    5.390029   16.453087
Zn     16.991090    4.248023    8.495045
Zn     12.743068    8.496045   16.991090
C      15.277081    6.261033   11.681062
H      14.594077    6.418034   12.291065
N      16.453087    6.962037   11.601062
C      15.277081    5.310028   10.730057
H      14.594077    4.700025   10.573056
N      16.453087    5.390029   10.029053
Zn     16.991090    8.495045   12.743068
C      14.902079    8.361044   14.902079
C      14.757078   10.209054   13.805073
H      14.913079   10.893058   13.195070
C      15.396082    7.043037   15.396082
H      16.289086    7.140038   15.729083
H      15.390082    6.409034   14.673078
H      14.823079    6.730036   16.099085
N      15.457082    9.034048   13.885074
C      13.805073   10.209054   14.757078
H      13.195070   10.893058   14.913079
N      13.885074    9.034048   15.457082
Zn     12.743068    8.495045    0.000000
Zn      8.495045   12.743068    0.000000
Zn      8.496045   16.991090    4.248023
C      10.730057   15.277081    5.310028
H      10.573056   14.594077    4.700025
N      10.029053   16.453087    5.390029
C      11.681062   15.277081    6.261033
H      12.291065   14.594077    6.418034
N      11.601062   16.453087    6.962037
Zn     12.743068   16.991090    8.495045
N       7.957042   15.457082    3.106016
C      14.902079   14.902079    8.361044
C      14.757078   13.805073   10.209054
H      14.913079   13.195070   10.893058
C      15.396082   15.396082    7.043037
H      16.289086   15.729083    7.140038
H      15.390082   14.673078    6.409034
H      14.823079   16.099085    6.730036
N      15.457082   13.885074    9.034048
C      13.805073   14.757078   10.209054
H      13.195070   14.913079   10.893058
N      13.885074   15.457082    9.034048
Zn     16.991090   12.743068    8.495045
Zn     16.991090    8.495045    4.248023
C      10.730057   11.681062    1.714009
H      10.573056   12.291065    2.397013
N      10.029053   11.601062    0.538003
C      11.681062   10.730057    1.714009
H      12.291065   10.573056    2.397013
N      11.601062   10.029053    0.538003
C      14.902079    8.630046    2.089011
C      14.757078    6.782036    3.186017
H      14.913079    6.098032    3.796020
C      15.396082    9.948053    1.595008
H      16.289086    9.851052    1.262007
H      15.390082   10.582056    2.318012
H      14.823079   10.261054    0.892005
N      15.457082    7.957042    3.106016
C       8.630046   14.902079    2.089011
C       6.782036   14.757078    3.186017
H       6.098032   14.913079    3.796020
C       9.948053   15.396082    1.595008
C       6.782036   13.805073    2.234012
H       6.098032   13.195070    2.078011
H       9.851052   15.729083    0.702004
H      10.582056   14.673078    1.601008
H      10.261054   16.099085    2.168012
N       7.957042   13.885074    1.534008
C      13.805073    6.782036    2.234012
H      13.195070    6.098032    2.078011
N      13.885074    7.957042    1.534008
C      15.277081   10.730057    5.310028
H      14.594077   10.573056    4.700025
N      16.453087   10.029053    5.390029
C      15.277081   11.681062    6.261033
H      14.594077   12.291065    6.418034
N      16.453087   11.601062    6.962037
C       6.406034    6.406034   16.857089
C       6.900037    6.900037   15.538082
H       7.794041    7.233038   15.635083
H       6.895037    6.178033   14.905079
H       6.327034    7.603040   15.226081
C       6.406034   16.857089    6.406034
C       6.900037   15.538082    6.900037
H       7.233038   15.635083    7.794041
H       6.178033   14.905079    6.895037
H       7.603040   15.226081    6.327034
C      10.585056   16.857089   10.585056
C      10.091054   15.538082   10.091054
H       9.197049   15.635083    9.758052
H      10.096054   14.905079   10.813057
H      10.664057   15.226081    9.388050
C      16.857089    6.406034    6.406034
C      15.538082    6.900037    6.900037
H      15.635083    7.794041    7.233038
H      14.905079    6.895037    6.178033
H      15.226081    6.327034    7.603040
C      16.857089   10.585056   10.585056
C      15.538082   10.091054   10.091054
H      15.635083    9.758052    9.197049
H      14.905079   10.813057   10.096054
H      15.226081    9.388050   10.664057
C      10.585056   10.585056   16.857089
C      10.091054   10.091054   15.538082
H       9.197049    9.758052   15.635083
H      10.096054   10.813057   14.905079
H      10.664057    9.388050   15.226081
